Circuit: *** SPICE deck for cell and{lay} from library Multp

Vgnd: both pins shorted together -- ignoring.
Ignoring BSIM parameter XL
Ignoring BSIM parameter XW
Ignoring BSIM parameter XL
Ignoring BSIM parameter XW
Direct Newton iteration for .op point succeeded.

Date: Sat Dec 01 11:50:10 2018
Total elapsed time: 0.320 seconds.

tnom = 27
temp = 27
method = modified trap
totiter = 3318
traniter = 3301
tranpoints = 1407
accept = 1285
rejected = 122
matrix size = 9
fillins = 0
solver = Normal
Matrix Compiler1: 332 bytes object code size  0.4/0.3/[0.3]
Matrix Compiler2: off  [0.4]/0.6/0.8


