Circuit: *** SPICE deck for cell CR_FA{lay} from library Multp

Vgnd: both pins shorted together -- ignoring.
Ignoring BSIM parameter XL
Ignoring BSIM parameter XW
Ignoring BSIM parameter XL
Ignoring BSIM parameter XW
Direct Newton iteration for .op point succeeded.

Date: Sun Nov 25 18:12:02 2018
Total elapsed time: 0.650 seconds.

tnom = 27
temp = 27
method = modified trap
totiter = 5955
traniter = 5939
tranpoints = 2229
accept = 1842
rejected = 387
matrix size = 13
fillins = 0
solver = Normal
Matrix Compiler1: 748 bytes object code size  0.6/0.5/[0.1]
Matrix Compiler2: off  [0.5]/1.0/0.7


