Circuit: *** SPICE deck for cell CR_HA{lay} from library Multp

Vgnd: both pins shorted together -- ignoring.
Ignoring BSIM parameter XL
Ignoring BSIM parameter XW
Ignoring BSIM parameter XL
Ignoring BSIM parameter XW
Direct Newton iteration for .op point succeeded.

Date: Sun Nov 25 17:33:19 2018
Total elapsed time: 0.400 seconds.

tnom = 27
temp = 27
method = modified trap
totiter = 5474
traniter = 5464
tranpoints = 2260
accept = 1884
rejected = 376
matrix size = 10
fillins = 0
solver = Normal
Matrix Compiler1:      29 opcodes  0.5/[0.2]/0.2
Matrix Compiler2: 912 bytes object code size  0.4/0.6/[0.4]


