Circuit: *** SPICE deck for cell FA{lay} from library Multp

Vgnd: both pins shorted together -- ignoring.
Ignoring BSIM parameter XL
Ignoring BSIM parameter XW
Ignoring BSIM parameter XL
Ignoring BSIM parameter XW
Direct Newton iteration for .op point succeeded.

Date: Sat Dec 01 13:19:46 2018
Total elapsed time: 0.950 seconds.

tnom = 27
temp = 27
method = modified trap
totiter = 6698
traniter = 6663
tranpoints = 2450
accept = 1977
rejected = 473
matrix size = 22
fillins = 0
solver = Normal
Thread vector: 218.7/104.4[2] 22.3/10.7[2] 5.2/4.4[2] 0.6/5.7[1]  2592/500
Matrix Compiler1: 1.66 KB object code size  1.6/0.8/[0.4]
Matrix Compiler2: off  [1.0]/1.7/1.8


