Circuit: *** SPICE deck for cell FA_Without_ICON{sch} from library Multp

Vgnd: both pins shorted together -- ignoring.
Ignoring BSIM parameter XL
Ignoring BSIM parameter XW
Ignoring BSIM parameter XL
Ignoring BSIM parameter XW
Warning: Pd = 0 is less than W.
Warning: Ps = 0 is less than W.
Warning: Pd = 0 is less than W.
Warning: Ps = 0 is less than W.
Direct Newton iteration for .op point succeeded.

Date: Tue Nov 27 23:43:37 2018
Total elapsed time: 1.070 seconds.

tnom = 27
temp = 27
method = modified trap
totiter = 9767
traniter = 9734
tranpoints = 2975
accept = 2378
rejected = 597
matrix size = 22
fillins = 0
solver = Normal
Thread vector: 99.8/78.4[2] 19.9/10.9[2] 5.8/3.5[2] 0.8/3.1[1]  2592/500
Matrix Compiler1: 1.63 KB object code size  1.3/0.8/[0.4]
Matrix Compiler2: off  [0.9]/1.8/2.1


