Circuit: *** SPICE deck for cell HA{lay} from library Multp

Vgnd: both pins shorted together -- ignoring.
Ignoring BSIM parameter XL
Ignoring BSIM parameter XW
Ignoring BSIM parameter XL
Ignoring BSIM parameter XW
Direct Newton iteration for .op point succeeded.

Date: Sat Dec 01 12:31:03 2018
Total elapsed time: 0.490 seconds.

tnom = 27
temp = 27
method = modified trap
totiter = 4023
traniter = 3995
tranpoints = 1599
accept = 1420
rejected = 179
matrix size = 16
fillins = 2
solver = Normal
Thread vector: 104.8/64.4[2] 21.0/8.8[2] 4.3/9.6[1] 0.5/1.3[1]  2592/500
Matrix Compiler1: 1.35 KB object code size  1.3/0.7/[0.3]
Matrix Compiler2: off  [0.8]/1.3/1.4


