Circuit: *** SPICE deck for cell HA_Without_ICON{sch} from library Multp

Vgnd: both pins shorted together -- ignoring.
Ignoring BSIM parameter XL
Ignoring BSIM parameter XW
Ignoring BSIM parameter XL
Ignoring BSIM parameter XW
Warning: Pd = 0 is less than W.
Warning: Ps = 0 is less than W.
Warning: Pd = 0 is less than W.
Warning: Ps = 0 is less than W.
Direct Newton iteration for .op point succeeded.

Date: Tue Nov 27 22:38:11 2018
Total elapsed time: 0.788 seconds.

tnom = 27
temp = 27
method = modified trap
totiter = 8179
traniter = 8147
tranpoints = 2684
accept = 2156
rejected = 528
matrix size = 16
fillins = 2
solver = Normal
Thread vector: 107.3/52.3[2] 15.3/12.0[2] 4.1/23.9[1] 0.5/76.1[1]  2592/500
Matrix Compiler1: 1.35 KB object code size  1.5/0.8/[0.3]
Matrix Compiler2: off  [0.9]/1.5/1.5


