Circuit: *** SPICE deck for cell inv_20_10{lay} from library Multp

Vgnd: both pins shorted together -- ignoring.
Ignoring BSIM parameter XL
Ignoring BSIM parameter XW
Ignoring BSIM parameter XL
Ignoring BSIM parameter XW
Direct Newton iteration for .op point succeeded.

Date: Sat Dec 01 11:40:18 2018
Total elapsed time: 0.160 seconds.

tnom = 27
temp = 27
method = modified trap
totiter = 2801
traniter = 2794
tranpoints = 1229
accept = 1163
rejected = 66
matrix size = 5
fillins = 0
solver = Normal
Matrix Compiler1: 204 bytes object code size  0.2/0.1/[0.1]
Matrix Compiler2: 311 bytes object code size  0.1/0.3/[0.1]


