Circuit: *** SPICE deck for cell MUL{lay} from library Multp

Vgnd: both pins shorted together -- ignoring.
Ignoring BSIM parameter XL
Ignoring BSIM parameter XW
Ignoring BSIM parameter XL
Ignoring BSIM parameter XW
Direct Newton iteration failed to find .op point.  (Use ".option noopiter" to skip.)
Starting Gmin stepping
Gmin = 10
Gmin = 1.07374
Gmin = 0.115292
Gmin = 0.0123794
Gmin = 0.00132923
Gmin = 0.000142725
Gmin = 1.5325e-005
Gmin = 1.6455e-006
Gmin = 1.76685e-007
Gmin = 1.89714e-008
Gmin = 2.03704e-009
Gmin = 2.18725e-010
Gmin = 2.34854e-011
Gmin = 2.52173e-012
Gmin = 2.70769e-013
Gmin = 0
Gmin stepping succeeded in finding the operating point.


Date: Sat Dec 01 11:23:39 2018
Total elapsed time: 3.660 seconds.

tnom = 27
temp = 27
method = modified trap
totiter = 2592
traniter = 2082
tranpoints = 1042
accept = 1042
rejected = 0
matrix size = 218
fillins = 236
solver = Normal
Thread vector: 1472.9/697.5[4] 442.6/83.5[4] 109.9/51.3[4] 6.4/11.5[1]  2592/500
Matrix Compiler1: 58.74 KB object code size  38.5/24.1/[14.3]
Matrix Compiler2:    2501 opcodes  24.3/[23.0]/30.3


