Circuit: *** SPICE deck for cell SM_FA{lay} from library Multp

Vgnd: both pins shorted together -- ignoring.
Ignoring BSIM parameter XL
Ignoring BSIM parameter XW
Ignoring BSIM parameter XL
Ignoring BSIM parameter XW
Direct Newton iteration for .op point succeeded.

Date: Sun Nov 25 18:18:15 2018
Total elapsed time: 0.640 seconds.

tnom = 27
temp = 27
method = modified trap
totiter = 5782
traniter = 5771
tranpoints = 2160
accept = 1792
rejected = 368
matrix size = 17
fillins = 0
solver = Normal
Matrix Compiler1: 984 bytes object code size  0.9/0.6/[0.3]
Matrix Compiler2: 1.88 KB object code size  0.8/1.0/[0.8]


