Circuit: *** SPICE deck for cell SM_HA{lay} from library Multp

Vgnd: both pins shorted together -- ignoring.
Ignoring BSIM parameter XL
Ignoring BSIM parameter XW
Ignoring BSIM parameter XL
Ignoring BSIM parameter XW
Direct Newton iteration for .op point succeeded.

Date: Sun Nov 25 18:05:18 2018
Total elapsed time: 0.700 seconds.

tnom = 27
temp = 27
method = modified trap
totiter = 7317
traniter = 7289
tranpoints = 2714
accept = 2175
rejected = 539
matrix size = 12
fillins = 2
solver = Normal
Matrix Compiler1: 948 bytes object code size  0.8/0.5/[0.3]
Matrix Compiler2: off  [0.4]/0.9/1.0


